Version 4
SHEET 1 1028 680
WIRE 144 128 -32 128
WIRE 288 128 192 128
WIRE -32 144 -32 128
WIRE 192 144 192 128
WIRE 144 160 144 128
WIRE 64 224 -32 224
WIRE 144 224 144 208
WIRE 144 224 64 224
WIRE 192 224 144 224
WIRE 288 224 288 208
WIRE 288 224 192 224
FLAG 64 224 0
SYMBOL e 192 128 R0
SYMATTR InstName E1
SYMATTR Value Laplace{31.62*(s^2+140634.7899)/(s^2+2487.12*s+3091970.56)}
SYMBOL voltage -32 128 R0
WINDOW 123 24 124 Left 2
WINDOW 39 0 0 Left 0
SYMATTR InstName V1
SYMATTR Value ""
SYMATTR Value2 AC 1
SYMBOL res 272 112 R0
SYMATTR InstName R1
SYMATTR Value 1
TEXT -66 272 Left 2 !.ac dec 1000 1 1k
